tests/data/upgrade-models/sb10_p1rhs25_1247_trans_301/p1rdt12732/OpenDSS/PV_Loads.dss
new load.load_p1rlv10450 conn=wye bus1=p1rlv10450.1.2 kv=0.208 vminpu=0.8 vmaxpu=1.2 model=1 kw=3.5351499599806546 kvar=1.2408858356080654 phases=2
new load.load_p1rlv10451 conn=wye bus1=p1rlv10451.1.2 kv=0.208 vminpu=0.8 vmaxpu=1.2 model=1 kw=11.138867064707801 kvar=0.15657880038516106 phases=2
new load.load_p1rlv10455 conn=wye bus1=p1rlv10455.1.2 kv=0.208 vminpu=0.8 vmaxpu=1.2 model=1 kw=11.99925861943529 kvar=0.9806215303968064 phases=2
new load.load_p1rlv10463 conn=wye bus1=p1rlv10463.1.2 kv=0.208 vminpu=0.8 vmaxpu=1.2 model=1 kw=11.302726769049313 kvar=2.532145735816427 phases=2
new load.load_p1rlv10466 conn=wye bus1=p1rlv10466.1.2 kv=0.208 vminpu=0.8 vmaxpu=1.2 model=1 kw=4.687835117101527 kvar=1.7732809673217982 phases=2
new load.load_p1rlv10493 conn=wye bus1=p1rlv10493.1.2 kv=0.208 vminpu=0.8 vmaxpu=1.2 model=1 kw=4.585598244946638 kvar=1.0771507015618407 phases=2
new load.load_p1rlv10655 conn=wye bus1=p1rlv10655.1.2 kv=0.208 vminpu=0.8 vmaxpu=1.2 model=1 kw=7.475973384485568 kvar=1.7813281630402813 phases=2
new load.load_p1rlv10696 conn=wye bus1=p1rlv10696.1.2 kv=0.208 vminpu=0.8 vmaxpu=1.2 model=1 kw=3.1341694883426414 kvar=1.108000893768201 phases=2
new load.load_p1rlv10715 conn=wye bus1=p1rlv10715.1.2 kv=0.208 vminpu=0.8 vmaxpu=1.2 model=1 kw=2.68805964179433 kvar=1.016417579723379 phases=2
new load.load_p1rlv10755 conn=wye bus1=p1rlv10755.1.2 kv=0.208 vminpu=0.8 vmaxpu=1.2 model=1 kw=10.401103218538001 kvar=2.59970915842108 phases=2
new load.load_p1rlv10881 conn=wye bus1=p1rlv10881.1.2 kv=0.208 vminpu=0.8 vmaxpu=1.2 model=1 kw=2.2048623766528053 kvar=0.7859976742554748 phases=2
new load.load_p1rlv10901 conn=wye bus1=p1rlv10901.1.2 kv=0.208 vminpu=0.8 vmaxpu=1.2 model=1 kw=7.863405355468962 kvar=2.336381714656806 phases=2
new load.load_p1rlv11092 conn=wye bus1=p1rlv11092.1.2 kv=0.208 vminpu=0.8 vmaxpu=1.2 model=1 kw=1.5969120804903365 kvar=0.35573175588179246 phases=2
new load.load_p1rlv11603 conn=wye bus1=p1rlv11603.1.2 kv=0.208 vminpu=0.8 vmaxpu=1.2 model=1 kw=2.8296707709777142 kvar=1.2786228886861206 phases=2
new load.load_p1rlv11612 conn=wye bus1=p1rlv11612.1.2 kv=0.208 vminpu=0.8 vmaxpu=1.2 model=1 kw=3.8976912882230343 kvar=0.05924617652967591 phases=2
new load.load_p1rlv11668 conn=wye bus1=p1rlv11668.1.2 kv=0.208 vminpu=0.8 vmaxpu=1.2 model=1 kw=2.7799121230814143 kvar=1.069814650019738 phases=2
new load.load_p1rlv11672 conn=wye bus1=p1rlv11672.1.2 kv=0.208 vminpu=0.8 vmaxpu=1.2 model=1 kw=6.072759890504601 kvar=1.7547393512111014 phases=2
new load.load_p1rlv11673 conn=wye bus1=p1rlv11673.1.2 kv=0.208 vminpu=0.8 vmaxpu=1.2 model=1 kw=0.6630689998645708 kvar=0.27148409296397524 phases=2
new load.load_p1rlv11678 conn=wye bus1=p1rlv11678.1.2 kv=0.208 vminpu=0.8 vmaxpu=1.2 model=1 kw=5.926357786514809 kvar=2.0196021607798085 phases=2
new load.load_p1rlv11680 conn=wye bus1=p1rlv11680.1.2 kv=0.208 vminpu=0.8 vmaxpu=1.2 model=1 kw=9.298658549491618 kvar=1.5276297530150913 phases=2
new load.load_p1rlv11685 conn=wye bus1=p1rlv11685.1.2 kv=0.208 vminpu=0.8 vmaxpu=1.2 model=1 kw=7.471769799239814 kvar=1.5724118772266333 phases=2
new load.load_p1rlv11688 conn=wye bus1=p1rlv11688.1.2 kv=0.208 vminpu=0.8 vmaxpu=1.2 model=1 kw=8.469960026004307 kvar=1.460750061821593 phases=2
new load.load_p1rlv12229 conn=wye bus1=p1rlv12229.1.2 kv=0.208 vminpu=0.8 vmaxpu=1.2 model=1 kw=0.40722865960783583 kvar=0.2243390570998325 phases=2
new load.load_p1rlv12230 conn=wye bus1=p1rlv12230.1.2 kv=0.208 vminpu=0.8 vmaxpu=1.2 model=1 kw=6.285203094352177 kvar=1.185662368946249 phases=2
new load.load_p1rlv12252 conn=wye bus1=p1rlv12252.1.2 kv=0.208 vminpu=0.8 vmaxpu=1.2 model=1 kw=7.960157087060225 kvar=0.5195259859035486 phases=2
new load.load_p1rlv12266 conn=wye bus1=p1rlv12266.1.2 kv=0.208 vminpu=0.8 vmaxpu=1.2 model=1 kw=3.661837875691021 kvar=1.2139489294037344 phases=2
new load.load_p1rlv12271 conn=wye bus1=p1rlv12271.1.2 kv=0.208 vminpu=0.8 vmaxpu=1.2 model=1 kw=6.874686436183906 kvar=0.5792384071788482 phases=2
new load.load_p1rlv12289 conn=wye bus1=p1rlv12289.1.2 kv=0.208 vminpu=0.8 vmaxpu=1.2 model=1 kw=6.4149013491411315 kvar=1.7496010929252908 phases=2
new load.load_p1rlv12304 conn=wye bus1=p1rlv12304.1.2 kv=0.208 vminpu=0.8 vmaxpu=1.2 model=1 kw=9.279225003172561 kvar=2.1954755143784985 phases=2
new load.load_p1rlv12305 conn=wye bus1=p1rlv12305.1.2 kv=0.208 vminpu=0.8 vmaxpu=1.2 model=1 kw=19.51849535511032 kvar=0.11353283420394485 phases=2
new load.load_p1rlv12329 conn=wye bus1=p1rlv12329.1.2 kv=0.208 vminpu=0.8 vmaxpu=1.2 model=1 kw=2.5533967939703426 kvar=1.0057225756509247 phases=2
new load.load_p1rlv12332 conn=wye bus1=p1rlv12332.1.2 kv=0.208 vminpu=0.8 vmaxpu=1.2 model=1 kw=5.411627958636918 kvar=0.3163083345052133 phases=2
new load.load_p1rlv12342 conn=wye bus1=p1rlv12342.1.2 kv=0.208 vminpu=0.8 vmaxpu=1.2 model=1 kw=3.1643066204399304 kvar=1.1100400339498555 phases=2
new load.load_p1rlv12363 conn=wye bus1=p1rlv12363.1.2 kv=0.208 vminpu=0.8 vmaxpu=1.2 model=1 kw=5.433821619791644 kvar=1.6465472737477893 phases=2
new load.load_p1rlv12366 conn=wye bus1=p1rlv12366.1.2 kv=0.208 vminpu=0.8 vmaxpu=1.2 model=1 kw=4.627356050104313 kvar=1.2549562513928672 phases=2
new load.load_p1rlv12389 conn=wye bus1=p1rlv12389.1.2 kv=0.208 vminpu=0.8 vmaxpu=1.2 model=1 kw=4.320670893633899 kvar=1.518754608068169 phases=2
new load.load_p1rlv12409 conn=wye bus1=p1rlv12409.1.2 kv=0.208 vminpu=0.8 vmaxpu=1.2 model=1 kw=2.9327539216933136 kvar=1.1005092218654307 phases=2
new load.load_p1rlv12411 conn=wye bus1=p1rlv12411.1.2 kv=0.208 vminpu=0.8 vmaxpu=1.2 model=1 kw=1.210637164085238 kvar=0.7757289461635335 phases=2
new load.load_p1rlv12421 conn=wye bus1=p1rlv12421.1.2 kv=0.208 vminpu=0.8 vmaxpu=1.2 model=1 kw=4.341837222614916 kvar=1.150826843787542 phases=2
new load.load_p1rlv12443 conn=wye bus1=p1rlv12443.1.2 kv=0.208 vminpu=0.8 vmaxpu=1.2 model=1 kw=8.833059703050356 kvar=2.3844336826013377 phases=2
new load.load_p1rlv12465 conn=wye bus1=p1rlv12465.1.2 kv=0.208 vminpu=0.8 vmaxpu=1.2 model=1 kw=0.7839932898074892 kvar=0.5105379556791113 phases=2
new load.load_p1rlv12471 conn=wye bus1=p1rlv12471.1.2 kv=0.208 vminpu=0.8 vmaxpu=1.2 model=1 kw=4.485437932962169 kvar=1.2320292337744743 phases=2
new load.load_p1rlv12990 conn=wye bus1=p1rlv12990.1.2 kv=0.208 vminpu=0.8 vmaxpu=1.2 model=1 kw=2.7572364976677446 kvar=1.0718726116249218 phases=2
new load.load_p1rlv12993 conn=wye bus1=p1rlv12993.1.2 kv=0.208 vminpu=0.8 vmaxpu=1.2 model=1 kw=9.39445877647576 kvar=1.3092017013098503 phases=2
new load.load_p1rlv13016 conn=wye bus1=p1rlv13016.1.2 kv=0.208 vminpu=0.8 vmaxpu=1.2 model=1 kw=2.7774051424805926 kvar=0.7073581145945215 phases=2
new load.load_p1rlv13022 conn=wye bus1=p1rlv13022.1.2 kv=0.208 vminpu=0.8 vmaxpu=1.2 model=1 kw=9.418153412833286 kvar=0.18501604158055232 phases=2
new load.load_p1rlv13069 conn=wye bus1=p1rlv13069.1.2 kv=0.208 vminpu=0.8 vmaxpu=1.2 model=1 kw=6.051155824753024 kvar=1.2959815382434907 phases=2
new load.load_p1rlv13070 conn=wye bus1=p1rlv13070.1.2 kv=0.208 vminpu=0.8 vmaxpu=1.2 model=1 kw=3.0547140190338853 kvar=0.7111987036330318 phases=2
new load.load_p1rlv13288 conn=wye bus1=p1rlv13288.1.2 kv=0.208 vminpu=0.8 vmaxpu=1.2 model=1 kw=4.16107869735514 kvar=0.3816503566024615 phases=2
new load.load_p1rlv13305 conn=wye bus1=p1rlv13305.1.2 kv=0.208 vminpu=0.8 vmaxpu=1.2 model=1 kw=4.893063130556896 kvar=1.862935843877475 phases=2
new load.load_p1rlv13323 conn=wye bus1=p1rlv13323.1.2 kv=0.208 vminpu=0.8 vmaxpu=1.2 model=1 kw=5.687043412999901 kvar=2.5415000455083248 phases=2
new load.load_p1rlv13327 conn=wye bus1=p1rlv13327.1.2 kv=0.208 vminpu=0.8 vmaxpu=1.2 model=1 kw=4.674883921222893 kvar=1.6553797554004945 phases=2
new load.load_p1rlv13331 conn=wye bus1=p1rlv13331.1.2 kv=0.208 vminpu=0.8 vmaxpu=1.2 model=1 kw=3.671202765765921 kvar=2.2454556097335865 phases=2
new load.load_p1rlv13729 conn=wye bus1=p1rlv13729.1.2 kv=0.208 vminpu=0.8 vmaxpu=1.2 model=1 kw=8.80480770923379 kvar=3.046492509875609 phases=2
new load.load_p1rlv13732 conn=wye bus1=p1rlv13732.1.2 kv=0.208 vminpu=0.8 vmaxpu=1.2 model=1 kw=7.13546163165136 kvar=0.05112176032164189 phases=2
new load.load_p1rlv13734 conn=wye bus1=p1rlv13734.1.2 kv=0.208 vminpu=0.8 vmaxpu=1.2 model=1 kw=1.4460649425212213 kvar=0.539815227441661 phases=2
new load.load_p1rlv13735 conn=wye bus1=p1rlv13735.1.2 kv=0.208 vminpu=0.8 vmaxpu=1.2 model=1 kw=8.558669458143067 kvar=0.037844278067981456 phases=2
new load.load_p1rlv13736 conn=wye bus1=p1rlv13736.1.2 kv=0.208 vminpu=0.8 vmaxpu=1.2 model=1 kw=4.233206353387864 kvar=0.6832078831462788 phases=2
new load.load_p1rlv13737 conn=wye bus1=p1rlv13737.1.2 kv=0.208 vminpu=0.8 vmaxpu=1.2 model=1 kw=5.696362455642578 kvar=1.5001226400056633 phases=2
new load.load_p1rlv13738 conn=wye bus1=p1rlv13738.1.2 kv=0.208 vminpu=0.8 vmaxpu=1.2 model=1 kw=2.9595045738611168 kvar=1.2320878506528534 phases=2
new load.load_p1rlv13740 conn=wye bus1=p1rlv13740.1.2 kv=0.208 vminpu=0.8 vmaxpu=1.2 model=1 kw=7.230813070608994 kvar=0.7389751703676937 phases=2
new load.load_p1rlv13741 conn=wye bus1=p1rlv13741.1.2 kv=0.208 vminpu=0.8 vmaxpu=1.2 model=1 kw=10.116840184599937 kvar=2.1149314833770516 phases=2
new load.load_p1rlv13742 conn=wye bus1=p1rlv13742.1.2 kv=0.208 vminpu=0.8 vmaxpu=1.2 model=1 kw=5.213919833337116 kvar=1.1100614154948314 phases=2
new load.load_p1rlv13744 conn=wye bus1=p1rlv13744.1.2 kv=0.208 vminpu=0.8 vmaxpu=1.2 model=1 kw=2.519211155682551 kvar=0.8921047817191214 phases=2
new load.load_p1rlv13746 conn=wye bus1=p1rlv13746.1.2 kv=0.208 vminpu=0.8 vmaxpu=1.2 model=1 kw=8.4922664379573 kvar=1.9056078474275506 phases=2
new load.load_p1rlv13747 conn=wye bus1=p1rlv13747.1.2 kv=0.208 vminpu=0.8 vmaxpu=1.2 model=1 kw=2.2413379285687385 kvar=0.6851441015153413 phases=2
new load.load_p1rlv13748 conn=wye bus1=p1rlv13748.1.2 kv=0.208 vminpu=0.8 vmaxpu=1.2 model=1 kw=2.9573786406508327 kvar=0.7333185508455266 phases=2
new load.load_p1rlv13750 conn=wye bus1=p1rlv13750.1.2 kv=0.208 vminpu=0.8 vmaxpu=1.2 model=1 kw=6.051155824753024 kvar=1.2959815382434907 phases=2
new load.load_p1rlv13753 conn=wye bus1=p1rlv13753.1.2 kv=0.208 vminpu=0.8 vmaxpu=1.2 model=1 kw=4.998299015288007 kvar=0.6720657472849626 phases=2
new load.load_p1rlv13755 conn=wye bus1=p1rlv13755.1.2 kv=0.208 vminpu=0.8 vmaxpu=1.2 model=1 kw=3.0731682586090767 kvar=1.070606200462832 phases=2
new load.load_p1rlv13756 conn=wye bus1=p1rlv13756.1.2 kv=0.208 vminpu=0.8 vmaxpu=1.2 model=1 kw=3.37042642274281 kvar=1.5168709481560245 phases=2
new load.load_p1rlv13757 conn=wye bus1=p1rlv13757.1.2 kv=0.208 vminpu=0.8 vmaxpu=1.2 model=1 kw=1.4301088199485577 kvar=0.6512606616128789 phases=2
new load.load_p1rlv13759 conn=wye bus1=p1rlv13759.1.2 kv=0.208 vminpu=0.8 vmaxpu=1.2 model=1 kw=3.8889314719984074 kvar=2.116013217991408 phases=2
new load.load_p1rlv13761 conn=wye bus1=p1rlv13761.1.2 kv=0.208 vminpu=0.8 vmaxpu=1.2 model=1 kw=5.255544408875697 kvar=1.3939373331337335 phases=2
new load.load_p1rlv13763 conn=wye bus1=p1rlv13763.1.2 kv=0.208 vminpu=0.8 vmaxpu=1.2 model=1 kw=3.748921168259389 kvar=1.1784993401537216 phases=2
new load.load_p1rlv13764 conn=wye bus1=p1rlv13764.1.2 kv=0.208 vminpu=0.8 vmaxpu=1.2 model=1 kw=3.005502098198886 kvar=1.5110843712873487 phases=2
new load.load_p1rlv13765 conn=wye bus1=p1rlv13765.1.2 kv=0.208 vminpu=0.8 vmaxpu=1.2 model=1 kw=7.268046704382428 kvar=2.5868349214472572 phases=2
new load.load_p1rlv13766 conn=wye bus1=p1rlv13766.1.2 kv=0.208 vminpu=0.8 vmaxpu=1.2 model=1 kw=5.204375153464826 kvar=0.914787705927824 phases=2
new load.load_p1rlv13767 conn=wye bus1=p1rlv13767.1.2 kv=0.208 vminpu=0.8 vmaxpu=1.2 model=1 kw=2.3627293558754845 kvar=0.40347664465074573 phases=2
new load.load_p1rlv13769 conn=wye bus1=p1rlv13769.1.2 kv=0.208 vminpu=0.8 vmaxpu=1.2 model=1 kw=6.051155824753024 kvar=1.2959815382434907 phases=2
new load.load_p1rlv13770 conn=wye bus1=p1rlv13770.1.2 kv=0.208 vminpu=0.8 vmaxpu=1.2 model=1 kw=7.787871644676161 kvar=1.3381874917859662 phases=2
new load.load_p1rlv13771 conn=wye bus1=p1rlv13771.1.2 kv=0.208 vminpu=0.8 vmaxpu=1.2 model=1 kw=8.147295670104556 kvar=1.974180187968981 phases=2
new load.load_p1rlv13772 conn=wye bus1=p1rlv13772.1.2 kv=0.208 vminpu=0.8 vmaxpu=1.2 model=1 kw=5.131970851342282 kvar=1.6278475583066845 phases=2
new load.load_p1rlv13773 conn=wye bus1=p1rlv13773.1.2 kv=0.208 vminpu=0.8 vmaxpu=1.2 model=1 kw=5.250959757329915 kvar=0.5058498843024282 phases=2
new load.load_p1rlv13774 conn=wye bus1=p1rlv13774.1.2 kv=0.208 vminpu=0.8 vmaxpu=1.2 model=1 kw=3.4319836220487927 kvar=1.3962483273934527 phases=2
new load.load_p1rlv13775 conn=wye bus1=p1rlv13775.1.2 kv=0.208 vminpu=0.8 vmaxpu=1.2 model=1 kw=3.175446179477611 kvar=0.8777535958466735 phases=2
new load.load_p1rlv13813 conn=wye bus1=p1rlv13813.1.2 kv=0.208 vminpu=0.8 vmaxpu=1.2 model=1 kw=5.119087444035962 kvar=1.4203062805042137 phases=2
new load.load_p1rlv13939 conn=wye bus1=p1rlv13939.1.2 kv=0.208 vminpu=0.8 vmaxpu=1.2 model=1 kw=2.3556870731368953 kvar=0.4906912984479736 phases=2
new load.load_p1rlv13940 conn=wye bus1=p1rlv13940.1.2 kv=0.208 vminpu=0.8 vmaxpu=1.2 model=1 kw=4.339631746540689 kvar=1.6981379196746722 phases=2
new load.load_p1rlv13941 conn=wye bus1=p1rlv13941.1.2 kv=0.208 vminpu=0.8 vmaxpu=1.2 model=1 kw=3.971770264214253 kvar=1.2056904353345896 phases=2
new load.load_p1rlv13947 conn=wye bus1=p1rlv13947.1.2 kv=0.208 vminpu=0.8 vmaxpu=1.2 model=1 kw=2.5614224986453262 kvar=1.1512074280622593 phases=2
new load.load_p1rlv13950 conn=wye bus1=p1rlv13950.1.2 kv=0.208 vminpu=0.8 vmaxpu=1.2 model=1 kw=6.918553395046374 kvar=1.6850045836375984 phases=2
new load.load_p1rlv13953 conn=wye bus1=p1rlv13953.1.2 kv=0.208 vminpu=0.8 vmaxpu=1.2 model=1 kw=3.4048743863094457 kvar=1.176999696618193 phases=2
new load.load_p1rlv13955 conn=wye bus1=p1rlv13955.1.2 kv=0.208 vminpu=0.8 vmaxpu=1.2 model=1 kw=14.338206210868309 kvar=5.366814250121446 phases=2
new load.load_p1rlv13958 conn=wye bus1=p1rlv13958.1.2 kv=0.208 vminpu=0.8 vmaxpu=1.2 model=1 kw=11.60038125116536 kvar=5.669598415463665 phases=2
new load.load_p1rlv13960 conn=wye bus1=p1rlv13960.1.2 kv=0.208 vminpu=0.8 vmaxpu=1.2 model=1 kw=3.8230941433091634 kvar=1.5023993062447702 phases=2
new load.load_p1rlv13964 conn=wye bus1=p1rlv13964.1.2 kv=0.208 vminpu=0.8 vmaxpu=1.2 model=1 kw=7.82040136459795 kvar=1.1110824040852838 phases=2
new load.load_p1rlv13968 conn=wye bus1=p1rlv13968.1.2 kv=0.208 vminpu=0.8 vmaxpu=1.2 model=1 kw=6.273048221818825 kvar=2.133382659122018 phases=2
new load.load_p1rlv14282 conn=wye bus1=p1rlv14282.1.2 kv=0.208 vminpu=0.8 vmaxpu=1.2 model=1 kw=5.131970851342282 kvar=1.6278475583066845 phases=2
new load.load_p1rlv14291 conn=wye bus1=p1rlv14291.1.2 kv=0.208 vminpu=0.8 vmaxpu=1.2 model=1 kw=6.402938259853218 kvar=2.1638698375315784 phases=2
new load.load_p1rlv14313 conn=wye bus1=p1rlv14313.1.2 kv=0.208 vminpu=0.8 vmaxpu=1.2 model=1 kw=15.21713787863327 kvar=3.0976678556868875 phases=2
new load.load_p1rlv14317 conn=wye bus1=p1rlv14317.1.2 kv=0.208 vminpu=0.8 vmaxpu=1.2 model=1 kw=6.051155824753024 kvar=1.2959815382434907 phases=2
new load.load_p1rlv14334 conn=wye bus1=p1rlv14334.1.2 kv=0.208 vminpu=0.8 vmaxpu=1.2 model=1 kw=10.510645604504855 kvar=0.11353283420394485 phases=2
new load.load_p1rlv14338 conn=wye bus1=p1rlv14338.1.2 kv=0.208 vminpu=0.8 vmaxpu=1.2 model=1 kw=5.307439039963231 kvar=1.3072779119896218 phases=2
new load.load_p1rlv14354 conn=wye bus1=p1rlv14354.1.2 kv=0.208 vminpu=0.8 vmaxpu=1.2 model=1 kw=5.344425481592577 kvar=1.0066280342768523 phases=2
new load.load_p1rlv14383 conn=wye bus1=p1rlv14383.1.2 kv=0.208 vminpu=0.8 vmaxpu=1.2 model=1 kw=6.044901178223457 kvar=1.4162041760520876 phases=2
new load.load_p1rlv14392 conn=wye bus1=p1rlv14392.1.2 kv=0.208 vminpu=0.8 vmaxpu=1.2 model=1 kw=5.782279970477645 kvar=1.3484280562566315 phases=2
new load.load_p1rlv14404 conn=wye bus1=p1rlv14404.1.2 kv=0.208 vminpu=0.8 vmaxpu=1.2 model=1 kw=5.213919833337116 kvar=1.1100614154948314 phases=2
new load.load_p1rlv14413 conn=wye bus1=p1rlv14413.1.2 kv=0.208 vminpu=0.8 vmaxpu=1.2 model=1 kw=4.108187169433156 kvar=1.8229090888720807 phases=2
new load.load_p1rlv14416 conn=wye bus1=p1rlv14416.1.2 kv=0.208 vminpu=0.8 vmaxpu=1.2 model=1 kw=6.051155824753024 kvar=1.2959815382434907 phases=2
new load.load_p1rlv15587 conn=wye bus1=p1rlv15587.1.2 kv=0.208 vminpu=0.8 vmaxpu=1.2 model=1 kw=4.309134001779065 kvar=0.20717324619930066 phases=2
new load.load_p1rlv15589 conn=wye bus1=p1rlv15589.1.2 kv=0.208 vminpu=0.8 vmaxpu=1.2 model=1 kw=4.505485899493901 kvar=1.0010024193371747 phases=2
new load.load_p1rlv15592 conn=wye bus1=p1rlv15592.1.2 kv=0.208 vminpu=0.8 vmaxpu=1.2 model=1 kw=4.063699319538799 kvar=0.9681840390731264 phases=2
new load.load_p1rlv15596 conn=wye bus1=p1rlv15596.1.2 kv=0.208 vminpu=0.8 vmaxpu=1.2 model=1 kw=6.03859463701527 kvar=0.04493949419213512 phases=2
new load.load_p1rlv15600 conn=wye bus1=p1rlv15600.1.2 kv=0.208 vminpu=0.8 vmaxpu=1.2 model=1 kw=9.118209809521518 kvar=1.8108656745997758 phases=2
new load.load_p1rlv15601 conn=wye bus1=p1rlv15601.1.2 kv=0.208 vminpu=0.8 vmaxpu=1.2 model=1 kw=4.16107869735514 kvar=0.3816503566024615 phases=2
new load.load_p1rlv15602 conn=wye bus1=p1rlv15602.1.2 kv=0.208 vminpu=0.8 vmaxpu=1.2 model=1 kw=4.0105515454222225 kvar=0.8254287758744938 phases=2
new load.load_p1rlv15611 conn=wye bus1=p1rlv15611.1.2 kv=0.208 vminpu=0.8 vmaxpu=1.2 model=1 kw=4.316310583385594 kvar=0.9739315989421384 phases=2
new load.load_p1rlv15612 conn=wye bus1=p1rlv15612.1.2 kv=0.208 vminpu=0.8 vmaxpu=1.2 model=1 kw=4.891988635928664 kvar=1.7194146663719307 phases=2
new load.load_p1rlv15620 conn=wye bus1=p1rlv15620.1.2 kv=0.208 vminpu=0.8 vmaxpu=1.2 model=1 kw=8.147295670104556 kvar=1.974180187968981 phases=2
new load.load_p1rlv15621 conn=wye bus1=p1rlv15621.1.2 kv=0.208 vminpu=0.8 vmaxpu=1.2 model=1 kw=2.981935218130855 kvar=1.168762604083961 phases=2
new load.load_p1rlv15626 conn=wye bus1=p1rlv15626.1.2 kv=0.208 vminpu=0.8 vmaxpu=1.2 model=1 kw=3.120815692766253 kvar=1.1764245010418612 phases=2
new load.load_p1rlv15627 conn=wye bus1=p1rlv15627.1.2 kv=0.208 vminpu=0.8 vmaxpu=1.2 model=1 kw=1.8609767716583767 kvar=0.5315941051605987 phases=2
new load.load_p1rlv15630 conn=wye bus1=p1rlv15630.1.2 kv=0.208 vminpu=0.8 vmaxpu=1.2 model=1 kw=8.420603041132647 kvar=1.7284226723524296 phases=2
new load.load_p1rlv15631 conn=wye bus1=p1rlv15631.1.2 kv=0.208 vminpu=0.8 vmaxpu=1.2 model=1 kw=3.7567955207888515 kvar=1.315542239366208 phases=2
new load.load_p1rlv15635 conn=wye bus1=p1rlv15635.1.2.3 kv=0.48 vminpu=0.8 vmaxpu=1.2 model=1 kw=29.445627186898232 kvar=12.852661576662921 phases=3
new load.load_p1rlv15643 conn=wye bus1=p1rlv15643.1.2 kv=0.208 vminpu=0.8 vmaxpu=1.2 model=1 kw=8.125975312885465 kvar=4.539847304975393 phases=2
new load.load_p1rlv15647 conn=wye bus1=p1rlv15647.1.2 kv=0.208 vminpu=0.8 vmaxpu=1.2 model=1 kw=5.230719111815293 kvar=0.5779130562814392 phases=2
new load.load_p1rlv16378 conn=wye bus1=p1rlv16378.1.2 kv=0.208 vminpu=0.8 vmaxpu=1.2 model=1 kw=1.895894180307162 kvar=0.7739551921857216 phases=2
new load.load_p1rlv16381 conn=wye bus1=p1rlv16381.1.2 kv=0.208 vminpu=0.8 vmaxpu=1.2 model=1 kw=3.0731682586090767 kvar=1.070606200462832 phases=2
new load.load_p1rlv16384 conn=wye bus1=p1rlv16384.1.2 kv=0.208 vminpu=0.8 vmaxpu=1.2 model=1 kw=14.066659662806245 kvar=1.7049549402577953 phases=2
new load.load_p1rlv16386 conn=wye bus1=p1rlv16386.1.2 kv=0.208 vminpu=0.8 vmaxpu=1.2 model=1 kw=7.475973384485568 kvar=1.7813281630402813 phases=2
new load.load_p1rlv16391 conn=wye bus1=p1rlv16391.1.2 kv=0.208 vminpu=0.8 vmaxpu=1.2 model=1 kw=9.112619928099045 kvar=1.7771762222720093 phases=2
new load.load_p1rlv16400 conn=wye bus1=p1rlv16400.1.2 kv=0.208 vminpu=0.8 vmaxpu=1.2 model=1 kw=5.058850338173239 kvar=1.2024443085344712 phases=2
new load.load_p1rlv16403 conn=wye bus1=p1rlv16403.1.2 kv=0.208 vminpu=0.8 vmaxpu=1.2 model=1 kw=10.401103218538001 kvar=2.59970915842108 phases=2
new load.load_p1rlv16406 conn=wye bus1=p1rlv16406.1.2 kv=0.208 vminpu=0.8 vmaxpu=1.2 model=1 kw=3.6223021679545107 kvar=0.16058550913192504 phases=2
new load.load_p1rlv16409 conn=wye bus1=p1rlv16409.1.2 kv=0.208 vminpu=0.8 vmaxpu=1.2 model=1 kw=8.968611694075681 kvar=2.678833716731263 phases=2
new load.load_p1rlv16410 conn=wye bus1=p1rlv16410.1.2 kv=0.208 vminpu=0.8 vmaxpu=1.2 model=1 kw=1.0459179665280087 kvar=0.6719761424132926 phases=2
new load.load_p1rlv16414 conn=wye bus1=p1rlv16414.1.2 kv=0.208 vminpu=0.8 vmaxpu=1.2 model=1 kw=1.6749585702350231 kvar=0.6407817353475183 phases=2
new load.load_p1rlv16415 conn=wye bus1=p1rlv16415.1.2 kv=0.208 vminpu=0.8 vmaxpu=1.2 model=1 kw=28.44819101047468 kvar=1.777936554204405 phases=2
new load.load_p1rlv16421 conn=wye bus1=p1rlv16421.1.2 kv=0.208 vminpu=0.8 vmaxpu=1.2 model=1 kw=8.469960026004307 kvar=1.460750061821593 phases=2
new load.load_p1rlv16425 conn=wye bus1=p1rlv16425.1.2 kv=0.208 vminpu=0.8 vmaxpu=1.2 model=1 kw=3.763960226473623 kvar=1.3398724693519468 phases=2
new load.load_p1rlv16428 conn=wye bus1=p1rlv16428.1.2 kv=0.208 vminpu=0.8 vmaxpu=1.2 model=1 kw=4.144497680956196 kvar=0.971227599870923 phases=2
new load.load_p1rlv16429 conn=wye bus1=p1rlv16429.1.2 kv=0.208 vminpu=0.8 vmaxpu=1.2 model=1 kw=7.03251678541549 kvar=1.64703973289828 phases=2
new load.load_p1rlv16430 conn=wye bus1=p1rlv16430.1.2 kv=0.208 vminpu=0.8 vmaxpu=1.2 model=1 kw=13.161059820305889 kvar=0.6985537693603994 phases=2
new load.load_p1rlv16673 conn=wye bus1=p1rlv16673.1.2 kv=0.208 vminpu=0.8 vmaxpu=1.2 model=1 kw=4.339631746540689 kvar=1.6981379196746722 phases=2
new load.load_p1rlv16675 conn=wye bus1=p1rlv16675.1.2 kv=0.208 vminpu=0.8 vmaxpu=1.2 model=1 kw=4.616955729483228 kvar=1.2615503660968075 phases=2
new load.load_p1rlv16676 conn=wye bus1=p1rlv16676.1.2 kv=0.208 vminpu=0.8 vmaxpu=1.2 model=1 kw=3.368926501393823 kvar=0.814263146156317 phases=2
new load.load_p1rlv16683 conn=wye bus1=p1rlv16683.1.2 kv=0.208 vminpu=0.8 vmaxpu=1.2 model=1 kw=4.434454000242883 kvar=1.1457821012022795 phases=2
new load.load_p1rlv16687 conn=wye bus1=p1rlv16687.1.2 kv=0.208 vminpu=0.8 vmaxpu=1.2 model=1 kw=4.900704357402814 kvar=1.3897575080734765 phases=2
new load.load_p1rlv16728 conn=wye bus1=p1rlv16728.1.2 kv=0.208 vminpu=0.8 vmaxpu=1.2 model=1 kw=0.5203854847014576 kvar=0.2783192505417943 phases=2
new load.load_p1rlv16931 conn=wye bus1=p1rlv16931.1.2 kv=0.208 vminpu=0.8 vmaxpu=1.2 model=1 kw=7.930308520554144 kvar=1.2615190511191345 phases=2
new load.load_p1rlv16982 conn=wye bus1=p1rlv16982.1.2 kv=0.208 vminpu=0.8 vmaxpu=1.2 model=1 kw=2.962350004675407 kvar=1.5999059775722846 phases=2
new load.load_p1rlv17129 conn=wye bus1=p1rlv17129.1.2 kv=0.208 vminpu=0.8 vmaxpu=1.2 model=1 kw=4.251324122160272 kvar=1.3467479499816999 phases=2
new load.load_p1rlv17131 conn=wye bus1=p1rlv17131.1.2 kv=0.208 vminpu=0.8 vmaxpu=1.2 model=1 kw=6.627029951582709 kvar=1.474214175545135 phases=2
new load.load_p1rlv17138 conn=wye bus1=p1rlv17138.1.2 kv=0.208 vminpu=0.8 vmaxpu=1.2 model=1 kw=9.040467395795414 kvar=2.7146889599175155 phases=2
new load.load_p1rlv17139 conn=wye bus1=p1rlv17139.1.2 kv=0.208 vminpu=0.8 vmaxpu=1.2 model=1 kw=2.389865127489505 kvar=0.8888256665670565 phases=2
new load.load_p1rlv17145 conn=wye bus1=p1rlv17145.1.2 kv=0.208 vminpu=0.8 vmaxpu=1.2 model=1 kw=4.433450178581329 kvar=1.1068729453384383 phases=2
new load.load_p1rlv17147 conn=wye bus1=p1rlv17147.1.2 kv=0.208 vminpu=0.8 vmaxpu=1.2 model=1 kw=2.2293511412901053 kvar=1.1912467782166136 phases=2
new load.load_p1rlv17148 conn=wye bus1=p1rlv17148.1.2 kv=0.208 vminpu=0.8 vmaxpu=1.2 model=1 kw=8.301502669792168 kvar=2.109868683007932 phases=2
new load.load_p1rlv17163 conn=wye bus1=p1rlv17163.1.2 kv=0.208 vminpu=0.8 vmaxpu=1.2 model=1 kw=5.885658138096062 kvar=0.05112176032164189 phases=2
new load.load_p1rlv17168 conn=wye bus1=p1rlv17168.1.2 kv=0.208 vminpu=0.8 vmaxpu=1.2 model=1 kw=7.3871896510698525 kvar=1.4829465440336307 phases=2
new load.load_p1rlv17174 conn=wye bus1=p1rlv17174.1.2 kv=0.208 vminpu=0.8 vmaxpu=1.2 model=1 kw=6.543187847426358 kvar=2.191953112866287 phases=2
new load.load_p1rlv17194 conn=wye bus1=p1rlv17194.1.2 kv=0.208 vminpu=0.8 vmaxpu=1.2 model=1 kw=1.3467960646534216 kvar=0.4525394882856867 phases=2
new load.load_p1rlv17204 conn=wye bus1=p1rlv17204.1.2 kv=0.208 vminpu=0.8 vmaxpu=1.2 model=1 kw=2.9327539216933136 kvar=1.1005092218654307 phases=2
new load.load_p1rlv17213 conn=wye bus1=p1rlv17213.1.2 kv=0.208 vminpu=0.8 vmaxpu=1.2 model=1 kw=2.981935218130855 kvar=1.168762604083961 phases=2
new load.load_p1rlv17214 conn=wye bus1=p1rlv17214.1.2 kv=0.208 vminpu=0.8 vmaxpu=1.2 model=1 kw=0.9170189047167304 kvar=0.39039844187325473 phases=2
new load.load_p1rlv17215 conn=wye bus1=p1rlv17215.1.2 kv=0.208 vminpu=0.8 vmaxpu=1.2 model=1 kw=8.686764144209544 kvar=2.3250953163758794 phases=2
new load.load_p1rlv17348 conn=wye bus1=p1rlv17348.1.2 kv=0.208 vminpu=0.8 vmaxpu=1.2 model=1 kw=7.768059518418649 kvar=1.9065068301604022 phases=2
new load.load_p1rlv17363 conn=wye bus1=p1rlv17363.1.2 kv=0.208 vminpu=0.8 vmaxpu=1.2 model=1 kw=1.9143484099307349 kvar=0.7476969988171249 phases=2
new load.load_p1rlv17364 conn=wye bus1=p1rlv17364.1.2 kv=0.208 vminpu=0.8 vmaxpu=1.2 model=1 kw=2.092464595701546 kvar=1.4570732000502065 phases=2
new load.load_p1rlv17421 conn=wye bus1=p1rlv17421.1.2 kv=0.208 vminpu=0.8 vmaxpu=1.2 model=1 kw=3.269310724269714 kvar=1.1195896305222508 phases=2
new load.load_p1rlv17434 conn=wye bus1=p1rlv17434.1.2 kv=0.208 vminpu=0.8 vmaxpu=1.2 model=1 kw=9.531506840058313 kvar=1.6344415005473951 phases=2
new load.load_p1rlv17438 conn=wye bus1=p1rlv17438.1.2 kv=0.208 vminpu=0.8 vmaxpu=1.2 model=1 kw=4.341837222614916 kvar=1.150826843787542 phases=2
new load.load_p1rlv17441 conn=wye bus1=p1rlv17441.1.2 kv=0.208 vminpu=0.8 vmaxpu=1.2 model=1 kw=3.9005777665835604 kvar=1.005814065855856 phases=2
new load.load_p1rlv17751 conn=wye bus1=p1rlv17751.1.2 kv=0.208 vminpu=0.8 vmaxpu=1.2 model=1 kw=14.412438823435446 kvar=0.727114882142924 phases=2
new load.load_p1rlv17755 conn=wye bus1=p1rlv17755.1.2 kv=0.208 vminpu=0.8 vmaxpu=1.2 model=1 kw=3.9945172569443437 kvar=1.0811987391609985 phases=2
new load.load_p1rlv17761 conn=wye bus1=p1rlv17761.1.2 kv=0.208 vminpu=0.8 vmaxpu=1.2 model=1 kw=7.32896644996921 kvar=1.9077289061030331 phases=2
new load.load_p1rlv18386 conn=wye bus1=p1rlv18386.1.2 kv=0.208 vminpu=0.8 vmaxpu=1.2 model=1 kw=1.8359555924892448 kvar=0.6962800798555026 phases=2
new load.load_p1rlv18391 conn=wye bus1=p1rlv18391.1.2 kv=0.208 vminpu=0.8 vmaxpu=1.2 model=1 kw=6.057241729048129 kvar=0.10497206151102341 phases=2
new load.load_p1rlv18393 conn=wye bus1=p1rlv18393.1.2 kv=0.208 vminpu=0.8 vmaxpu=1.2 model=1 kw=5.765530978251178 kvar=1.5413101175328772 phases=2
new load.load_p1rlv18409 conn=wye bus1=p1rlv18409.1.2 kv=0.208 vminpu=0.8 vmaxpu=1.2 model=1 kw=0.7839932898074892 kvar=0.5105379556791113 phases=2
new load.load_p1rlv18423 conn=wye bus1=p1rlv18423.1.2 kv=0.208 vminpu=0.8 vmaxpu=1.2 model=1 kw=3.602948781508131 kvar=1.307462395990479 phases=2
new load.load_p1rlv18441 conn=wye bus1=p1rlv18441.1.2 kv=0.208 vminpu=0.8 vmaxpu=1.2 model=1 kw=9.121509044013424 kvar=1.7586006541233714 phases=2
new load.load_p1rlv18442 conn=wye bus1=p1rlv18442.1.2 kv=0.208 vminpu=0.8 vmaxpu=1.2 model=1 kw=4.971362953821773 kvar=1.6534647109652902 phases=2
new load.load_p1rlv18448 conn=wye bus1=p1rlv18448.1.2 kv=0.208 vminpu=0.8 vmaxpu=1.2 model=1 kw=4.998299015288007 kvar=0.6720657472849626 phases=2
new load.load_p1rlv18468 conn=wye bus1=p1rlv18468.1.2 kv=0.208 vminpu=0.8 vmaxpu=1.2 model=1 kw=5.429262436796697 kvar=0.22528964316099362 phases=2
new load.load_p1rlv18472 conn=wye bus1=p1rlv18472.1.2 kv=0.208 vminpu=0.8 vmaxpu=1.2 model=1 kw=1.8102678143526765 kvar=0.6827911352336853 phases=2
new load.load_p1rlv18484 conn=wye bus1=p1rlv18484.1.2 kv=0.208 vminpu=0.8 vmaxpu=1.2 model=1 kw=6.03859463701527 kvar=0.04493949419213512 phases=2
new load.load_p1rlv18486 conn=wye bus1=p1rlv18486.1.2 kv=0.208 vminpu=0.8 vmaxpu=1.2 model=1 kw=5.662716902630836 kvar=1.0076604234198154 phases=2
new load.load_p1rlv18503 conn=wye bus1=p1rlv18503.1.2 kv=0.208 vminpu=0.8 vmaxpu=1.2 model=1 kw=7.731221793546723 kvar=1.2953737441016597 phases=2
new load.load_p1rlv18508 conn=wye bus1=p1rlv18508.1.2 kv=0.208 vminpu=0.8 vmaxpu=1.2 model=1 kw=3.246436647741765 kvar=1.035486640462459 phases=2
new load.load_p1rlv19705 conn=wye bus1=p1rlv19705.1.2 kv=0.208 vminpu=0.8 vmaxpu=1.2 model=1 kw=9.39445877647576 kvar=1.3092017013098503 phases=2
new load.load_p1rlv19707 conn=wye bus1=p1rlv19707.1.2 kv=0.208 vminpu=0.8 vmaxpu=1.2 model=1 kw=3.1131440328071354 kvar=1.6580642027351087 phases=2
new load.load_p1rlv19708 conn=wye bus1=p1rlv19708.1.2 kv=0.208 vminpu=0.8 vmaxpu=1.2 model=1 kw=2.5702023900069944 kvar=1.165877285178603 phases=2
new load.load_p1rlv19709 conn=wye bus1=p1rlv19709.1.2 kv=0.208 vminpu=0.8 vmaxpu=1.2 model=1 kw=7.32896644996921 kvar=1.9077289061030331 phases=2
new load.load_p1rlv19712 conn=wye bus1=p1rlv19712.1.2 kv=0.208 vminpu=0.8 vmaxpu=1.2 model=1 kw=0.8584418726310435 kvar=0.3287031601504656 phases=2
new load.load_p1rlv19715 conn=wye bus1=p1rlv19715.1.2 kv=0.208 vminpu=0.8 vmaxpu=1.2 model=1 kw=7.499901683416692 kvar=2.4038496090410244 phases=2
new load.load_p1rlv19719 conn=wye bus1=p1rlv19719.1.2 kv=0.208 vminpu=0.8 vmaxpu=1.2 model=1 kw=9.040467395795414 kvar=2.7146889599175155 phases=2
new load.load_p1rlv19721 conn=wye bus1=p1rlv19721.1.2 kv=0.208 vminpu=0.8 vmaxpu=1.2 model=1 kw=8.676049896286433 kvar=1.819362880214897 phases=2
...
